
**** 10/23/19 02:34:02 ********* PSpice 9.2 (Mar 2000) ******** ID# 0 ********

 * C:\Users\User\Desktop\New folder (2)\PSpice Solution for assignment 2  RL circuits only\RLRC updated\1RL.sch


 ****     CIRCUIT DESCRIPTION


******************************************************************************




* Schematics Version 9.2
* Mon Oct 14 23:41:06 2019



** Analysis setup **
.tran 0ns 15us 0ms .1us
.OP 


* From [PSPICE NETLIST] section of C:\Program Files\Orcad\PSpice\PSpice.ini:
.lib "nom.lib"

.INC "1RL.net"



**** INCLUDING 1RL.net ****
* Schematics Netlist *



X_U3         b 0 Sw_tClose PARAMS: tClose=0 ttran=1u Rclosed=0.01 Ropen=1Meg
R_R2         c a  4.68k  
L_L3         a b  10.63mH  
V_V2         c 0  
+PULSE 0V 12V 0s 0.1us 0.1us 15us 30us

**** RESUMING 1RL.cir ****
.PROBE V(*) I(*) W(*) D(*) NOISE(*) 


.END

**** 10/23/19 02:34:02 ********* PSpice 9.2 (Mar 2000) ******** ID# 0 ********

 * C:\Users\User\Desktop\New folder (2)\PSpice Solution for assignment 2  RL circuits only\RLRC updated\1RL.sch


 ****     Voltage Controlled Switch MODEL PARAMETERS


******************************************************************************




               X_U3.Smod       
         RON     .01         
        ROFF    1.000000E+06 
         VON    1            
        VOFF    0            


**** 10/23/19 02:34:02 ********* PSpice 9.2 (Mar 2000) ******** ID# 0 ********

 * C:\Users\User\Desktop\New folder (2)\PSpice Solution for assignment 2  RL circuits only\RLRC updated\1RL.sch


 ****     SMALL SIGNAL BIAS SOLUTION       TEMPERATURE =   27.000 DEG C


******************************************************************************



 NODE   VOLTAGE     NODE   VOLTAGE     NODE   VOLTAGE     NODE   VOLTAGE


(    a)    0.0000  (    b)    0.0000  (    c)    0.0000  (X_U3.3)    0.0000 




    VOLTAGE SOURCE CURRENTS
    NAME         CURRENT

    V_V2         0.000E+00
    X_U3.V1      0.000E+00

    TOTAL POWER DISSIPATION   0.00E+00  WATTS


**** 10/23/19 02:34:02 ********* PSpice 9.2 (Mar 2000) ******** ID# 0 ********

 * C:\Users\User\Desktop\New folder (2)\PSpice Solution for assignment 2  RL circuits only\RLRC updated\1RL.sch


 ****     OPERATING POINT INFORMATION      TEMPERATURE =   27.000 DEG C


******************************************************************************






**** VOLTAGE CONTROLLED SWITCHES


NAME         X_U3.S1   
MODEL        X_U3.Smod 
I LOAD       0.00E+00 
V LOAD       0.00E+00 
R LOAD       1.00E+06 
V CTRL       0.00E+00 
**** 10/23/19 02:34:02 ********* PSpice 9.2 (Mar 2000) ******** ID# 0 ********

 * C:\Users\User\Desktop\New folder (2)\PSpice Solution for assignment 2  RL circuits only\RLRC updated\1RL.sch


 ****     INITIAL TRANSIENT SOLUTION       TEMPERATURE =   27.000 DEG C


******************************************************************************



 NODE   VOLTAGE     NODE   VOLTAGE     NODE   VOLTAGE     NODE   VOLTAGE


(    a)    0.0000  (    b)    0.0000  (    c)    0.0000  (X_U3.3)    0.0000 




    VOLTAGE SOURCE CURRENTS
    NAME         CURRENT

    V_V2         0.000E+00
    X_U3.V1      0.000E+00

    TOTAL POWER DISSIPATION   0.00E+00  WATTS



          JOB CONCLUDED

          TOTAL JOB TIME             .02
