
**** 10/23/19 02:43:17 ********* PSpice 9.2 (Mar 2000) ******** ID# 0 ********

 * C:\Users\User\Desktop\New folder (2)\PSpice Solution for assignment 2  RL circuits only\RLRC updated\2RL.sch


 ****     CIRCUIT DESCRIPTION


******************************************************************************




* Schematics Version 9.2
* Wed Oct 23 02:41:58 2019



** Analysis setup **
.tran 0ns 3s 0ns 1ms
.OP 


* From [PSPICE NETLIST] section of C:\Program Files\Orcad\PSpice\PSpice.ini:
.lib "nom.lib"

.INC "2RL.net"



**** INCLUDING 2RL.net ****
* Schematics Netlist *



X_U1         $N_0001 $N_0002 Sw_tClose PARAMS: tClose=0 ttran=1u Rclosed=0.01
+  Ropen=1Meg
X_U2         $N_0002 $N_0003 Sw_tClose PARAMS: tClose=4 ttran=1u Rclosed=0.01
+  Ropen=1Meg
R_R1         $N_0004 $N_0001  8.5  
R_R3         $N_0005 $N_0003  4.25  
R_R2         $N_0002 a  12.75  
V_V3         $N_0004 0  
+PULSE 0 40 0 .1us .1us 1s 2s
L_L1         0 a  10.63H  
V_V5         $N_0005 0  
+PULSE 0 10 0 .1us .1us 1ms 2ms

**** RESUMING 2RL.cir ****
.PROBE V(*) I(*) W(*) D(*) NOISE(*) 


.END

**** 10/23/19 02:43:17 ********* PSpice 9.2 (Mar 2000) ******** ID# 0 ********

 * C:\Users\User\Desktop\New folder (2)\PSpice Solution for assignment 2  RL circuits only\RLRC updated\2RL.sch


 ****     Voltage Controlled Switch MODEL PARAMETERS


******************************************************************************




               X_U1.Smod       X_U2.Smod       
         RON     .01             .01         
        ROFF    1.000000E+06    1.000000E+06 
         VON    1               1            
        VOFF    0               0            


**** 10/23/19 02:43:17 ********* PSpice 9.2 (Mar 2000) ******** ID# 0 ********

 * C:\Users\User\Desktop\New folder (2)\PSpice Solution for assignment 2  RL circuits only\RLRC updated\2RL.sch


 ****     SMALL SIGNAL BIAS SOLUTION       TEMPERATURE =   27.000 DEG C


******************************************************************************



 NODE   VOLTAGE     NODE   VOLTAGE     NODE   VOLTAGE     NODE   VOLTAGE


(    a)    0.0000  (X_U1.3)    0.0000 (X_U2.3)    0.0000 ($N_0001)    0.0000    

($N_0002)    0.0000                   ($N_0003)    0.0000                       

($N_0004)    0.0000                   ($N_0005)    0.0000                   




    VOLTAGE SOURCE CURRENTS
    NAME         CURRENT

    V_V3         0.000E+00
    V_V5         0.000E+00
    X_U1.V1      0.000E+00
    X_U2.V1      0.000E+00

    TOTAL POWER DISSIPATION   0.00E+00  WATTS


**** 10/23/19 02:43:17 ********* PSpice 9.2 (Mar 2000) ******** ID# 0 ********

 * C:\Users\User\Desktop\New folder (2)\PSpice Solution for assignment 2  RL circuits only\RLRC updated\2RL.sch


 ****     OPERATING POINT INFORMATION      TEMPERATURE =   27.000 DEG C


******************************************************************************






**** VOLTAGE CONTROLLED SWITCHES


NAME         X_U1.S1     X_U2.S1   
MODEL        X_U1.Smod   X_U2.Smod 
I LOAD       0.00E+00    0.00E+00 
V LOAD       0.00E+00    0.00E+00 
R LOAD       1.00E+06    1.00E+06 
V CTRL       0.00E+00    0.00E+00 
**** 10/23/19 02:43:17 ********* PSpice 9.2 (Mar 2000) ******** ID# 0 ********

 * C:\Users\User\Desktop\New folder (2)\PSpice Solution for assignment 2  RL circuits only\RLRC updated\2RL.sch


 ****     INITIAL TRANSIENT SOLUTION       TEMPERATURE =   27.000 DEG C


******************************************************************************



 NODE   VOLTAGE     NODE   VOLTAGE     NODE   VOLTAGE     NODE   VOLTAGE


(    a)    0.0000  (X_U1.3)    0.0000 (X_U2.3)    0.0000 ($N_0001)    0.0000    

($N_0002)    0.0000                   ($N_0003)    0.0000                       

($N_0004)    0.0000                   ($N_0005)    0.0000                   




    VOLTAGE SOURCE CURRENTS
    NAME         CURRENT

    V_V3         0.000E+00
    V_V5         0.000E+00
    X_U1.V1      0.000E+00
    X_U2.V1      0.000E+00

    TOTAL POWER DISSIPATION   0.00E+00  WATTS



          JOB CONCLUDED

          TOTAL JOB TIME            2.84
